*SRC=BAV21W;DI_BAV21W;Diodes;Si;  200V  0.400A  50.0ns   Diodes Inc. -
.MODEL DI_BAV21W D  ( IS=1.09u RS=0.105 BV=200 IBV=100n
+ CJO=5.00p  M=0.333 N=3.29 TT=72.0n )
