*DIODES_INC_SPICE_MODEL ZXGD3111 version1 
*SIMULATOR=SIMETRIX
*ORIGIN=DZSL_DPG_SU
*DATE=20May2016
*VERSION=1


*PIN ORDER 1:GND  2:GND   3:Vcc  4:GATE   5:PGND   6:PGND  7:DRAIN
.SUBCKT ZXGD3111 1 2 3 4 5 6 7
Gin 12 11 7 2 .1
D1 10 11 DMOD
D2 10 12 DMOD
Rset 11 12 33.3k TC2=.1m
Cset 11 12 1p
Rgnd 12 2 1m
Sw 14 2 12 11 SMOD
Rbias 3 14 1k
Cbias 14 2 .8n
Dz 2 14 DMOD1
Rshort1 2 1 10m
Rshort2 5 6 10m
Q1 3 14 31 npns
Q2 3 31 4 npnl
Q3 2 31 4 pnpl
Q4 2 14 31 pnps

.MODEL DMOD D(BV=20)
.MODEL DMOD1 D(BV=12)
.MODEL SMOD VSWITCH(VOFF=10.5 VON=9.5 ROFF=1meg RON=.5)


.MODEL npns NPN IS=6E-16 NF=1.005 BF=260 IKF=0.007 VAF=51 ISE=2E-16 NE=1.35 
+ BR=25 ISC=1e-15 NC=1.2 RB=200 RE=3 RC=0.6 CJC=0.24E-12 MJC=0.33 VJC=0.7
+ CJE=1.02E-12 MJE=0.3 VJE=0.7
+ TF=1E-9 TR=30e-9
.MODEL npnl NPN IS=3E-13 NF=1.005 BF=260 IKF=0.7 VAF=51 ISE=1E-14 NE=1.45 
+ BR=25 ISC=1e-13 NC=1.2 RB=2 RE=0.05 RC=0.1 CJC=27E-12 MJC=0.4 VJC=0.7
+ CJE=114E-12 MJE=0.35 VJE=0.7
+ TF=1E-9 TR=30e-9 
.MODEL pnps PNP IS=5E-16 NF=1 BF=350 IKF=0.006 VAF=51 ISE=5E-16 NE=1.35 
+ BR=25 ISC=1e-15 NC=1.2 RB=500 RE=5 RC=.6 CJC=0.54E-12 MJC=0.32 VJC=0.5
+ CJE=1.05E-12 MJE=0.2 VJE=0.6
+ TF=10E-9 TR=30e-9 
.MODEL pnpl PNP IS=2.2E-13 NF=1 BF=350 IKF=0.6 VAF=51 ISE=1E-14 NE=1.45 
+ BR=25 ISC=1e-13 NC=1.2 RB=3 RE=0.05 RC=0.1 CJC=35E-12 MJC=0.4 VJC=0.6
+ CJE=125E-12 MJE=0.5 VJE=1
+ TF=10E-9 TR=30e-9 


.ENDS

*                (c)  2016 Diodes Inc
*
*   The copyright in these models  and  the designs embodied belong
*   to Diodes Incorporated (" Zetex ").  They  are  supplied
*   free of charge by Zetex for the purpose of research and design
*   and may be used or copied intact  (including this notice)  for
*   that purpose only.  All other rights are reserved.  The models
*   are believed accurate but no condition  or warranty  as to their
*   merchantability or fitness for purpose is given and no liability
*   in respect of any use is accepted by Diodes Incorporated, its distributors
*   or agents.
*
*   Diodes Zetex Semiconductors Ltd, Zetex Technology Park, Chadderton,
*   Oldham, United Kingdom, OL9 9LL


*DIODES_INC_SPICE_MODEL ZXGD3112 version1 
*SIMULATOR=SIMETRIX
*ORIGIN=DZSL_DPG_SU
*DATE=20May2016
*VERSION=1


*PIN ORDER 1:GND  2:GND   3:Vcc  4:GATE   5:PGND   6:PGND  7:DRAIN
.SUBCKT ZXGD3112 1 2 3 4 5 6 7
Gin 12 11 7 2 .1
D1 10 11 DMOD
D2 10 12 DMOD
Rset 11 12 33.3k TC2=.1m
Cset 11 12 1p
Rgnd 12 2 1m
Sw 14 2 12 11 SMOD
Rbias 3 14 1k
Cbias 14 2 .8n
Dz 2 14 DMOD1
Rshort1 2 1 10m
Rshort2 5 6 10m
Q1 3 14 31 npns
Q2 3 31 4 npnl
Q3 2 31 4 pnpl
Q4 2 14 31 pnps

.MODEL DMOD D(BV=20)
.MODEL DMOD1 D(BV=12)
.MODEL SMOD VSWITCH(VOFF=10.5 VON=9.5 ROFF=1meg RON=.5)


.MODEL npns NPN IS=6E-16 NF=1.005 BF=260 IKF=0.007 VAF=51 ISE=2E-16 NE=1.35 
+ BR=25 ISC=1e-15 NC=1.2 RB=200 RE=3 RC=0.6 CJC=0.24E-12 MJC=0.33 VJC=0.7
+ CJE=1.02E-12 MJE=0.3 VJE=0.7
+ TF=1E-9 TR=30e-9
.MODEL npnl NPN IS=3E-13 NF=1.005 BF=260 IKF=0.7 VAF=51 ISE=1E-14 NE=1.45 
+ BR=25 ISC=1e-13 NC=1.2 RB=2 RE=0.05 RC=0.1 CJC=27E-12 MJC=0.4 VJC=0.7
+ CJE=114E-12 MJE=0.35 VJE=0.7
+ TF=1E-9 TR=30e-9 
.MODEL pnps PNP IS=5E-16 NF=1 BF=350 IKF=0.006 VAF=51 ISE=5E-16 NE=1.35 
+ BR=25 ISC=1e-15 NC=1.2 RB=500 RE=5 RC=.6 CJC=0.54E-12 MJC=0.32 VJC=0.5
+ CJE=1.05E-12 MJE=0.2 VJE=0.6
+ TF=10E-9 TR=30e-9 
.MODEL pnpl PNP IS=2.2E-13 NF=1 BF=350 IKF=0.6 VAF=51 ISE=1E-14 NE=1.45 
+ BR=25 ISC=1e-13 NC=1.2 RB=3 RE=0.05 RC=0.1 CJC=35E-12 MJC=0.4 VJC=0.6
+ CJE=125E-12 MJE=0.5 VJE=1
+ TF=10E-9 TR=30e-9 


.ENDS

*                (c)  2016 Diodes Inc
*
*   The copyright in these models  and  the designs embodied belong
*   to Diodes Incorporated (" Zetex ").  They  are  supplied
*   free of charge by Zetex for the purpose of research and design
*   and may be used or copied intact  (including this notice)  for
*   that purpose only.  All other rights are reserved.  The models
*   are believed accurate but no condition  or warranty  as to their
*   merchantability or fitness for purpose is given and no liability
*   in respect of any use is accepted by Diodes Incorporated, its distributors
*   or agents.
*
*   Diodes Zetex Semiconductors Ltd, Zetex Technology Park, Chadderton,
*   Oldham, United Kingdom, OL9 9LL


*DIODES_INC_SPICE_MODEL ZXGD3108 version1 
*SIMULATOR=SIMETRIX
*ORIGIN=DZSL_DPG_SU
*DATE=20May2016
*VERSION=1

.SUBCKT ZXGD3108 1 2 3 4 5 6 7 8
Gin 12 11 8 2 .1
D1 10 11 DMOD
D2 10 12 DMOD
Rset 11 12 33.3k TC2=.1m
Cset 11 12 1p
Rgnd 12 2 1m
Sw 14 2 12 11 SMOD
Rbias 5 14 1k
Cbias 14 2 .8n
Rshort1 2 3 10m
Rshort2 5 6 10m
Q1 5 14 31 npns
Q2 5 31 4 npnl
Q3 2 31 4 pnpl
Q4 2 14 31 pnps

.MODEL DMOD D(BV=20)
.MODEL SMOD VSWITCH(VOFF=10.5 VON=9.5 ROFF=1meg RON=.5)


.MODEL npns NPN IS=6E-16 NF=1.005 BF=260 IKF=0.007 VAF=51 ISE=2E-16 NE=1.35 
+ BR=25 ISC=1e-15 NC=1.2 RB=200 RE=3 RC=0.6 CJC=0.24E-12 MJC=0.33 VJC=0.7
+ CJE=1.02E-12 MJE=0.3 VJE=0.7
+ TF=1E-9 TR=30e-9
.MODEL npnl NPN IS=3E-13 NF=1.005 BF=260 IKF=0.7 VAF=51 ISE=1E-14 NE=1.45 
+ BR=25 ISC=1e-13 NC=1.2 RB=2 RE=0.05 RC=0.1 CJC=27E-12 MJC=0.4 VJC=0.7
+ CJE=114E-12 MJE=0.35 VJE=0.7
+ TF=1E-9 TR=30e-9 
.MODEL pnps PNP IS=5E-16 NF=1 BF=350 IKF=0.006 VAF=51 ISE=5E-16 NE=1.35 
+ BR=25 ISC=1e-15 NC=1.2 RB=500 RE=5 RC=.6 CJC=0.54E-12 MJC=0.32 VJC=0.5
+ CJE=1.05E-12 MJE=0.2 VJE=0.6
+ TF=10E-9 TR=30e-9 
.MODEL pnpl PNP IS=2.2E-13 NF=1 BF=350 IKF=0.6 VAF=51 ISE=1E-14 NE=1.45 
+ BR=25 ISC=1e-13 NC=1.2 RB=3 RE=0.05 RC=0.1 CJC=35E-12 MJC=0.4 VJC=0.6
+ CJE=125E-12 MJE=0.5 VJE=1
+ TF=10E-9 TR=30e-9 


.ENDS

*                (c)  2016 Diodes Inc
*
*   The copyright in these models  and  the designs embodied belong
*   to Diodes Incorporated (" Zetex ").  They  are  supplied
*   free of charge by Zetex for the purpose of research and design
*   and may be used or copied intact  (including this notice)  for
*   that purpose only.  All other rights are reserved.  The models
*   are believed accurate but no condition  or warranty  as to their
*   merchantability or fitness for purpose is given and no liability
*   in respect of any use is accepted by Diodes Incorporated, its distributors
*   or agents.
*
*   Diodes Zetex Semiconductors Ltd, Zetex Technology Park, Chadderton,
*   Oldham, United Kingdom, OL9 9LL


*DIODES_INC_SPICE_MODEL ZXGD3105
*SIMULATOR=SIMETRIX
*ORIGIN=DZSL_DPG_SU
*DATE=29Nov2012
*VERSION=1

.SUBCKT ZXGD3105 1 2 3 4 5 6 7 8
L1 1 11 2n
L2 7 12 2n
Din 3 4 DMOD1
Rin 3 12 30000
*Dx 3 5 DMOD
D1 3 11 DMOD
D2 12 3 DMOD
Q1 5 3 12 NMOD

G1 11 13 VALUE={1.38e-11*(exp((V(30)-V(13))/.0026))}
G2 14 12 VALUE={1.38e-11*(exp((V(14)-V(30))/.0026))}
R01 11 13 1000000
R02 14 12 1000000
R03 13 8 2
R04 14 8 1.2
D3 8 11 DMOD
D4 12 8 DMOD
R1 5 30 10
C2 30 12 8p
CS 30 8 2p
.MODEL DMOD D(IS=8n BV=30) 
.MODEL DMOD1 D(IS=200E-15 RS=59.7m
+ CJO=.6p  VJ=.42 M=0.36 N=1.35 TT=7n)
.MODEL NMOD NPN(IS=1.25E-15 BF=11 NF=1 ISE=6E-16 NE=1.15 CJC=2.56E-12 VJC=.72 MJC=.21 CJE=3.72E-12 VJE=.72 MJE=.24 TR=.1E-9)

.ENDS


*                (c)  2012 Diodes Inc
*
*   The copyright in these models  and  the designs embodied belong
*   to Diodes Incorporated (" Zetex ").  They  are  supplied
*   free of charge by Zetex for the purpose of research and design
*   and may be used or copied intact  (including this notice)  for
*   that purpose only.  All other rights are reserved.  The models
*   are believed accurate but no condition  or warranty  as to their
*   merchantability or fitness for purpose is given and no liability
*   in respect of any use is accepted by Diodes Incorporated, its distributors
*   or agents.
*
*   Diodes Zetex Semiconductors Ltd, Zetex Technology Park, Chadderton,
*   Oldham, United Kingdom, OL9 9LL
*


*DIODES-BCD AP2127 ADJ Version Spice Model v1.0
*
*NOTE: This is a simplified model not all features are modeled.
*
.subckt AP2127_ADJ  1 2 3 4 5
* NODES: VIN GND EN ADJ VOUT
M1 5 9 1 1 MOD1 L=1u W=1000u
R1 6 1 1E6
C1 9 1 20E-12
C2 5 9 20E-12
G1 2 20 4 12 6E-6
G2 2 22 12 4 6E-6
F1 22 2 VS 1
F2 1 6 VS 20
G3 6 1 22 2 100E-6
R3 20 23 10E3
VS 23 2 0
C3 20 2 310E-15  
C4 20 5 10E-12
R2 22 2 5E6
R5 22 24 400E3
C5 24 2 20E-12
D1 5 1 Dmod1
R6 3 13 20E4
R7 3 2 3E6
C6 13 2 4E-6
R8 1 5 50E6
R9 6 9 20E3
R10 2 12 Rmod1 1 
R40 5 2 5E4
S1 1 6 13 2 Smod1
I1 2 12 0.8
.MODEL MOD1 PMOS (VTO=-0.82 RS=0.2 RD=0.2 IS=1E-15 KP=0.73 KF=2e-19 AF=1.22)
.MODEL Dmod1 D (IS=1E-13 RS=0.5 N=1)
.MODEL Dmod2 D (IS=1E-13 RS=0.1 N=0.5)
.MODEL Rmod1 RES (TC1=-3E-5 TC2=-1E-7)
.MODEL Smod1 VSWITCH RON=1E-3 ROFF=10E6  VON=0.5 VOFF=1.2 
.ENDS AP2127_ADJ
*


*TITLE=AP8803 MACROMODEL
*ORIGIN=DZSL_AG_GS
*SIMULATOR=DIODES, SIMETRIX
*DATE=6th Jan 2012
*VERSION=1
*PIN_ORDER   1:SW, 2:GND, 3:CTRL, 4:SET, 5:VIN
*
* SIMetrix macromodel for AL8803 Buck LED Driver

* based on work by Tim Wilson

.subckt AL8803_SIMETRIX 10  26  13   20  18
* pins-------------------1---2---3----4---5 
*names                  SW  GND CTRL SET VIN

* Vref Generator *
E2         19 26 18 26 1
B111       14 26  V=Min(V(19), 1.25)    
R3         14 19  20k  
R4         14 13  200k  

* CTRL input filter *
* Faster (but unrealistic) startup can be
* achieved by changing initial conditions
* on C1 to C3 to match the settled value.
* eg 1.25V if CTRL is floating in the application
* or equal to the external DC voltage applied to CTRL
* or equal to the average value of the PWM signal
* applied to CTRL
C1         15 26  5p IC=0 
C2         16 26  5p IC=0 
C3         17 26  5p IC=0 
R5         13 15  7.7meg  
R6         15 16  7.7meg  
R7         16 17  7.7meg  
E7         12 26 17 26 1

* CTRL lockout with hysteresis *
R8         12 adj_lockout  1000  
I1         12 adj_lockout DC 50uA  
C7         adj_lockout 12  1p IC=0 
X_S4       adj_lockout 26 adj_lockout 12 AP_S4 
X_S5       adj_lockout 26 23 26 AP_S5 

* UV lockout *
X_S6       18 26 23 26 AP_S6 

* Main Function *
G2         26 8 18 20 1m
C4         26 20  20p  
R9         26 9  3.832k  
R10        9 8  10.859k  
X_S7       23 26 9 26 AP_S7 
G3         21 26 8 12 1000m
R11        26 21  1meg  
V3         24 26 700mV
D8         24 21 Dclamp 
V4         22 26 6V
D9         21 22 Dclamp 

* Comp Delay (Asymmetric) *
E4         25 26 21 26 1
C6         26 23  25p  
R13        23 25  2k  

* Output NMOS *
X_S8       23 26 11 26 AP_S8 
R12        11 10  0.4  
C5         26 10  100p  

* Supply Current *
X_S3       adj_lockout 26 4 7 AP_S3 
R1         26 7  1.58k 
R2         26 4  67k  
X_S2       18 26 6 4 AP_S2 
V1         5 26 1V
X_F1       6 5 18 26 AP_F1 


* Timestep Control *
* Only purpose is to force timestep without using a control card *
V99        99 26 DC 0 AC 0 PULSE 0 0 0 100n 100n 500n 1u
R99        99 26 100

.model Dzener D Is=1e-8 N=10 bv=1.245 ibv=1e-12 Cjo=.1e-12 Rs=.1 TBV1=4e-5 nbv=.01 
.model Dclamp  D Is=2.682n N=1.836 Rs=.5664 Ikf=44.17m Cjo=4p M=.3333 Vj=.5

.subckt AP_F1 1 2 3 4  
F_F1       3 4 VF_F1 1
VF_F1      1 2 0V
.ends AP_F1

.subckt AP_S3 1 2 3 4  
S_S3       3 4 1 2 S3
RS_S3      1 2 1G
.MODEL     S3 VSWITCH Roff=1e6 Ron=1.0 Voff=198mV Von=200mV
.ends AP_S3

.subckt AP_S2 1 2 3 4  
S_S2       3 4 1 2 S2
RS_S2      1 2 1G
.MODEL     S2 VSWITCH Roff=1e6 Ron=1.0 Voff=1.248V Von=1.25V
.ends AP_S2

.subckt AP_S6 1 2 3 4  
S_S6       3 4 1 2 S6
RS_S6      1 2 1G
.MODEL     S6 VSWITCH Roff=10e6 Ron=1.0 Voff=6.505V Von=6.495V
.ends AP_S6

.subckt AP_S7 1 2 3 4  
S_S7       3 4 1 2 S7
RS_S7      1 2 1G
.MODEL     S7 VSWITCH Roff=10e6 Ron=1.0 Voff=2750mV Von=2755mV
.ends AP_S7

.subckt AP_S8 1 2 3 4  
S_S8       3 4 1 2 S8
RS_S8      1 2 1G
.MODEL     S8 VSWITCH Roff=10e6 Ron=1.0 Voff=2750mV Von=2755mV
.ends AP_S8

.subckt AP_S4 1 2 3 4  
S_S4       3 4 1 2 S4
RS_S4      1 2 1G
.MODEL     S4 VSWITCH Roff=10e6 Ron=1 Voff=255mV Von=245mV
.ends AP_S4

.subckt AP_S5 1 2 3 4  
S_S5       3 4 1 2 S5
RS_S5      1 2 1G
.MODEL     S5 VSWITCH Roff=10e6 Ron=1.0 Voff=251mV Von=249mV
.ends AP_S5

.ends AP8803_SIMETRIX
*
*                (c)  2012 Diodes Inc
*
*   The copyright in these models  and  the designs embodied belong
*   to Diodes Incorporated (" Zetex ").  They  are  supplied
*   free of charge by Zetex for the purpose of research and design
*   and may be used or copied intact  (including this notice)  for
*   that purpose only.  All other rights are reserved.  The models
*   are believed accurate but no condition  or warranty  as to their
*   merchantability or fitness for purpose is given and no liability
*   in respect of any use is accepted by Diodes Incorporated, its distributors
*   or agents.
*
*   Diodes Zetex Semiconductors Ltd, Zetex Technology Park, Chadderton,
*   Oldham, United Kingdom, OL9 9LL


*TITLE=AL8806 MACROMODEL
*ORIGIN=DZSL_AG_GS
*SIMULATOR=DIODES, SIMETRIX and PSPICE
*DATE=22 Jul 2013
*VERSION=3
*PIN_ORDER   1:SET, 2:GND, 3:GND, 4:CTRL, 5:SW, 6:SW, 7: N/C, 8: VIN




* This model is intended for feasibility study of application
* design.  It is expected that it will not accurately represent
* the device real performance.  However some important features
* of the device are modelled approximately.
* The model does not include effects of temperature or self-heating.
* Testing of prototype hardware and optimisation on the bench
* is always required before production build.


* NOTE:  set RELTOL=1E-5 for clean switching waveform

.subckt AL8806 1 2 3 4 5 6 7 8   

Rsh1 2 3 1u
Rsh2 5 6 1u

*                   
* Block 1: Vref Generator * input nodes 8 and 2, outputs 11 and 2
.param  VIL1=0.8  VOL1=0  VIH1=3.45 VOH1=2.5  ;high and low limits of input and output  
.param  MUH1=0.05  MUL1=0.1  ; high and low curve error
.param SL1={(VOH1-VOL1)/(VIH1-VIL1)}  ; gain slope
E11  11  2  value={min(max(VOL1+SL1*(V(8)-V(2)-VIL1+MUL1*(1-tanh((V(8)-V(2)-VIL1+MUL1)/MUL1))
+ -MUH1*(1+tanh((V(8)-V(2)-VIH1-MUH1)/MUH1))) ,VOL1),VOH1)}
R11        11 4  50k  




* Block 2: CTRL limiter  * input nodes  4 and 2, outputs 21 and 2
.param  VIL2=0  VOL2=0  VIH2=2.5 VOH2=2.5  ;high and low limits of input and output  
.param  MUH2=0.001  MUL2=0.2  ; high and low curve error
.param SL2={(VOH2-VOL2)/(VIH2-VIL2)}  ; gain slope
E21  21  2  value={min(max(VOL2+SL2*(V(4)-V(2)-VIL2+MUL2*(1-tanh((V(4)-V(2)-VIL2+MUL2)/MUL2))
+ -MUH2*(1+tanh((V(4)-V(2)-VIH2-MUH2)/MUH2))) ,VOL2),VOH2)}




* Block 3: CTRL lockout with hysteresis *
R32        21  31  1000  
I31        21  31  100uA  
R31        31  32  1k
C31        32   2  10p
S31        31  21 32  2  S_31          
.model   S_31   VSWITCH Roff=10e6 Ron=1 Voff=505mV Von=495mV




S32        53  2 32 2  S_32 
.MODEL   S_32   VSWITCH Roff=10e6 Ron=100 Voff=501mV Von=499mV

* Block 4: UVLO with hysteresis*
E41       41 2  value={0.5*(1+tanh(1e3*(V(43)-V(8)+5.7)))}
R41       41 42 1k
C41       42 2  20p
R42       42 43 800k
R43       43 2  200k
S41       53 2 42 2   S_41 
.MODEL   S_41   VSWITCH Roff=1e6 Ron=100 Voff=0.4 Von=0.6




* Block 5: Current Sense Comparator*
G51        2 51 8 1 1m  ;  input amplifier
C51        2  1  3p      ;  input capacitance



* SET input current; asymptote input nodes 1 and 2, outputs 1 and 2
.param  xx5=5  yy5=16u  nn5=32;input corner, output limit, asymptote power
.param  aa5={xx5**nn5}
G52  1  2  value={yy5*(V(1)-V(2))/(aa5+(V(1)-V(2))**nn5)**(1/nn5)}
R51        2  52  10.417k  
R52        52 51  20.833k  
S51        52 2 66 2   S_51 
.MODEL     S_51  VSWITCH Roff=10e6 Ron=1.0 Voff=2.5V Von=2.8V
C52        51  2 0.5p
G53        53  2 value={0.01*tanh(100*(V(51)-V(21)))} ;comparator
C54        53  2 1f  
V51        54  2 700mV
D51        54 53 Dclamp
V52        55  2 8V
D52        53 55 Dclamp




* Block 6: Comp Delay and gate driver*
R64        53 63  10Meg    ;  input filter with C61 
C61        63  2  0.0015p   ;  
G61        61 65  Value={0.1*(max(V(63)-V(65)-0.5,0))**2*(V(61)-V(65))}
G62        65 62  Value={0.1*(max(V(65)-V(63)-0.5,0))**2*(V(65)-V(62))}
R66        61 65 10meg
R67        65 62 10meg
R61         8 61  1.2
R62        62  2  1.2
R63        65  2  10k

R65        65 64  1        ;  driver current sense
R68        66 64  49        ;  output resistance-1 ohm
C62         2 66  25f  




* Block 7: Output NMOS *
S71        72 71 66 71 S_71 
.MODEL     S_71 VSWITCH Roff=10e6 Ron=0.25 Voff=2.5V Von=2.8V
R72        72  5  50m     ; on resistance = R72 + R73 + Ron(S71) 
R73        71  2  50m
C73        72 71  100p
C71        66 71  40p
C72        72 66  15p
 
* Block 8: Supply Current *
G81         8  2 Value={(300u*(V(11)-V(2))/VOH1)+0.6u*(V(8)-V(2))}

* Block 9: Protection diodes
D91   2  5  D_1     ;SW
D92   2  8  D_1     ;VIN
D93   2  4  D_2     ;CTRL
D94   8  1  D_2    ;SET forward
D95   1  8  D_2    ;SET reverse

.model Dclamp  D Is=2.682n N=1.836 Rs=.5664 Ikf=44.17m Cjo=4p M=.3333 Vj=.5
.model D_1  D  IS=1e-14 BV=40
.model D_2  D  IS=1e-14 BV=6.5

.ends AL8805


*  =====================================================================
*
*                (c)  2013 Diodes Incorporated
*
*   The copyright in these models  and  the designs embodied belong
*   to Diodes Incorporated (" Diodes ").  They  are  supplied
*   free of charge by Diodes for the purpose of research and design
*   and may be used or copied intact  (including this notice)  for
*   that purpose only.  All other rights are reserved.  The models
*   are believed accurate but no condition or warranty as to their
*   merchantability or fitness for purpose is given and no liability
*   in respect of any use is accepted by Diodes Incorporated, its distributors
*   or agents.
*
*   Diodes Incorporated, 4949 Hedgcoxe Road, Suite 200, Plano, TX 75024, USA


*TITLE=AL8807 MACROMODEL
*ORIGIN=DZSL_AG_GS
*SIMULATOR=DIODES, SIMETRIX and PSPICE
*DATE=17th Jan 2013
*VERSION=1
*PIN_ORDER   1:SW, 2:GND, 3:CTRL, 4:SET, 5:VIN
*
* This model is intended for feasibility study of application
* design.  It is expected that it will not accurately represent
* the device real performance.  However some important features
* of the device are modelled approximately.
* The model does not include effects of temperature or self-heating.
* Testing of prototype hardware and optimisation on the bench
* is always required before production build.
*
* NOTE:  set RELTOL=1E-5 for clean switching waveform
*
.subckt AL8807   10   26   13  20   18  
* Connections    SW  GND  CTRL SET  VIN
* pins   SOT23   1   2    3    4    5
*                   
* Block 1: Vref Generator *  input is V(18)-V(26)
*required input parameters
.param  VIL1=0.7  VIH1=3.5  VOL1=0 VOH1=2.5  ; low and high limits of input and output  
.param  MUL1=0.1  MUH1=0.05  ; low and high curve error
*calculations
.param KL1={MUL1*tanh((VIH1-VIL1)/MUL1)}  KH1={MUH1*tanh((VIH1-VIL1)/MUH1)}
.param SL1={(VOH1-VOL1)/(VIH1-VIL1-KL1-KH1)}  ;gain slope
E11 14 26 value={min(max(VOL1+SL1*(V(18)-V(26)-VIL1-MUL1*tanh((V(18)-V(26)-VIL1)/MUL1)
+ -MUH1*tanh((V(18)-V(26)-VIH1)/MUH1)-KH1),VOL1),VOH1)}
R4         14 13  50k  

* Block 2: CTRL limiter
* tanh limiter, type 1, input nodes 13 and 26, outputs 12 and 26
.param  VIH2=2.5  VOH2=2.5  ;high limits of input and output  
.param  MU2=0.001  ; curve error
.param SL2={VOH2/VIH2}  ;gain slope
E21  12  26  value={SL2*min(V(13)-V(26)-MU2*(1+tanh((V(13)-V(26)-VIH2-MU2)/MU2)),VOH2)}

* Block 3: CTRL lockout with hysteresis *
R8         12 adj_lockout  1000  
I1         12 adj_lockout 100uA  
R31        adj_lockout 31  1k
C31        31 26 10p
S4   adj_lockout 12 31 26  S_4          
.model   S_4   VSWITCH Roff=10e6 Ron=1 Voff=505mV Von=495mV

S5       21 26 31 26  S_5 
.MODEL  S_5   VSWITCH Roff=10e6 Ron=100 Voff=501mV Von=499mV

* Block 4: UVLO with hysteresis*
E41       41 26 value={0.5*(1+tanh(1e3*(V(43)-V(18)+5.7)))}
R41       41 42 1k
C41       42 26 20p
R42       42 43 800k
R43       43 26 200k
S41       21 26 42 26   S_41 
.MODEL   S_41   VSWITCH Roff=1e6 Ron=100 Voff=0.4 Von=0.6

* Block 5: Current Sense Comparator*
G51        26 8 18 20 1m  ;  input amplifier
C51         26 20  3p      ;  input capacitance
* SET input current; asymptote input nodes 20 and 26, outputs 20 and 26
.param  xx5=5  yy5=16u  nn5=32;input corner, output limit, asymptote power
.param  aa5={xx5**nn5}
G52  20  26  value={yy5*(V(20)-V(26))/(aa5+(V(20)-V(26))**nn5)**(1/nn5)}
R51        26 9  10.417k  
R52        9 8  20.833k  
S51        9 26 23 26   S_51 
.MODEL     S_51  VSWITCH Roff=10e6 Ron=1.0 Voff=2.5V Von=2.8V
C52        8  26 0.5p
G53        21 26 value={0.01*tanh(100*(V(8)-V(12)))} ;comparator
C54        21 26 1f  
V3         24 26 700mV
D8         24 21 Dclamp
V4         22 26 8V
D9         21 22 Dclamp

* Block 6: Comp Delay and gate driver*
R64        21 63  10Meg    ;  input filter with C61 
C61        63 26  0.0015p   ;  
G4         61 25  Value={0.1*(max(V(63)-V(25)-0.5,0))**2*(V(61)-V(25))}
G5         25 62  Value={0.1*(max(V(25)-V(63)-0.5,0))**2*(V(25)-V(62))}
R66        61 25 10meg
R67        25 62 10meg
R61        18 61  1.2
R62        62 26  1.2
R63        25 26  10k

R65        25 64  1        ;  driver current sense
R13        23 64  330        ;  output resistance-1 ohm
C6         26 23  25f  

* Block 7: Output NMOS *
S8       11 71 23 71 S_8 
.MODEL     S_8 VSWITCH Roff=10e6 Ron=0.25 Voff=2.5V Von=2.8V
R72        11 10  50m     ; on resistance = R72 + R73 + Ron(S8) 
R73        71 26  50m
C5         11 71  100p
C71        23 71  40p
C72        11 23  15p
 
* Block 8: Supply Current *
G81         18 26 Value={(300u*(V(14)-V(26))/VOH1)+0.6u*(V(18)-V(26))}

* Block 9: Protection diodes
D91  26 10 D_1     ;SW
D92  26 18 D_1     ;VIN
D93  26 13 D_2     ;CTRL
D94  18 20  D_2    ;SET forward
D95  20 18  D_2    ;SET reverse

.model Dclamp  D Is=2.682n N=1.836 Rs=.5664 Ikf=44.17m Cjo=4p M=.3333 Vj=.5
.model D_1  D  IS=1e-14 BV=40
.model D_2  D  IS=1e-14 BV=6.5

.ends AL8807
*  =====================================================================
*
*                (c)  2013 Diodes Incorporated
*
*   The copyright in these models  and  the designs embodied belong
*   to Diodes Incorporated (" Diodes ").  They  are  supplied
*   free of charge by Diodes for the purpose of research and design
*   and may be used or copied intact  (including this notice)  for
*   that purpose only.  All other rights are reserved.  The models
*   are believed accurate but no condition or warranty as to their
*   merchantability or fitness for purpose is given and no liability
*   in respect of any use is accepted by Diodes Incorporated, its distributors
*   or agents.
*
*   Diodes Incorporated, 4949 Hedgcoxe Road, Suite 200, Plano, TX 75024, USA
*


*TITLE=AL8807A MACROMODEL
*ORIGIN=DZSL_AG_GS
*SIMULATOR=DIODES, SIMETRIX and PSPICE
*DATE=1st Feb 2013
*VERSION=1
*PIN_ORDER   1:SW, 2:GND, 3:CTRL, 4:SET, 5:VIN
*
* This model is intended for feasibility study of application
* design.  It is expected that it will not accurately represent
* the device real performance.  However some important features
* of the device are modelled approximately.
* The model does not include effects of temperature or self-heating.
* Testing of prototype hardware and optimisation on the bench
* is always required before production build.
*
* NOTE:  set RELTOL=1E-5 for clean switching waveform
*
.subckt AL8807A  1   2    3    4     5  
* Connections    SW  GND  CTRL SET  VIN
* pins   SOT23   1   2    3    4     5
*                   
* Block 1: Vref Generator * input nodes 5 and 2, outputs 11 and 2
.param  VIL1=0.8  VOL1=0  VIH1=3.45 VOH1=2.5  ;high and low limits of input and output  
.param  MUH1=0.05  MUL1=0.1  ; high and low curve error
.param SL1={(VOH1-VOL1)/(VIH1-VIL1)}  ; gain slope
E11  11  2  value={min(max(VOL1+SL1*(V(5)-V(2)-VIL1+MUL1*(1-tanh((V(5)-V(2)-VIL1+MUL1)/MUL1))
+ -MUH1*(1+tanh((V(5)-V(2)-VIH1-MUH1)/MUH1))) ,VOL1),VOH1)}
R11        11 3  50k  

* Block 2: CTRL limiter  * input nodes  3 and 2, outputs 21 and 2
.param  VIL2=0  VOL2=0  VIH2=2.5 VOH2=2.5  ;high and low limits of input and output  
.param  MUH2=0.001  MUL2=0.2  ; high and low curve error
.param SL2={(VOH2-VOL2)/(VIH2-VIL2)}  ; gain slope
E21  21  2  value={min(max(VOL2+SL2*(V(3)-V(2)-VIL2+MUL2*(1-tanh((V(3)-V(2)-VIL2+MUL2)/MUL2))
+ -MUH2*(1+tanh((V(3)-V(2)-VIH2-MUH2)/MUH2))) ,VOL2),VOH2)}

* Block 3: CTRL lockout with hysteresis *  not used

* Block 4: UVLO with hysteresis*
E41       41 2  value={0.5*(1+tanh(1e3*(V(43)-V(5)+5.7)))}
R41       41 42 1k
C41       42 2  20p
R42       42 43 800k
R43       43 2  200k
S41       53 2 42 2   S_41 
.MODEL   S_41   VSWITCH Roff=1e6 Ron=100 Voff=0.4 Von=0.6

* Block 5: Current Sense Comparator*
G51        2 51 5 4 1m  ;  input amplifier
C51        2  4  3p      ;  input capacitance
* SET input current; asymptote input nodes 4 and 2, outputs 4 and 2
.param  xx5=5  yy5=16u  nn5=32;input corner, output limit, asymptote power
.param  aa5={xx5**nn5}
G52  4  2  value={yy5*(V(4)-V(2))/(aa5+(V(4)-V(2))**nn5)**(1/nn5)}
R51        2  52  10.417k  
R52        52 51  20.833k  
S51        52 2 66 2   S_51 
.MODEL     S_51  VSWITCH Roff=10e6 Ron=1.0 Voff=2.5V Von=2.8V
C52        51  2 0.5p
G53        53  2 value={0.01*tanh(100*(V(51)-V(21)))} ;comparator
C54        53  2 1f  
V51        54  2 700mV
D51        54 53 Dclamp
V52        55  2 8V
D52        53 55 Dclamp

* Block 6: Comp Delay and gate driver*
R64        53 63  10Meg    ;  input filter with C61 
C61        63  2  0.0015p   ;  
G61        61 65  Value={0.1*(max(V(63)-V(65)-0.5,0))**2*(V(61)-V(65))}
G62        65 62  Value={0.1*(max(V(65)-V(63)-0.5,0))**2*(V(65)-V(62))}
R66        61 65 10meg
R67        65 62 10meg
R61         5 61  1.2
R62        62  2  1.2
R63        65  2  10k

R65        65 64  1        ;  driver current sense
R68        66 64  330        ;  output resistance-1 ohm
C62         2 66  25f  

* Block 7: Output NMOS *
S71        72 71 66 71 S_71 
.MODEL     S_71 VSWITCH Roff=10e6 Ron=0.25 Voff=2.5V Von=2.8V
R72        72  1  50m     ; on resistance = R72 + R73 + Ron(S71) 
R73        71  2  50m
C73        72 71  100p
C71        66 71  40p
C72        72 66  15p
 
* Block 8: Supply Current *
G81         5  2 Value={(300u*(V(11)-V(2))/VOH1)+0.6u*(V(5)-V(2))}

* Block 9: Protection diodes
D91   2  1  D_1     ;SW
D92   2  5  D_1     ;VIN
D93   2  3  D_2     ;CTRL
D94   5  4  D_2    ;SET forward
D95   4  5  D_2    ;SET reverse

.model Dclamp  D Is=2.682n N=1.836 Rs=.5664 Ikf=44.17m Cjo=4p M=.3333 Vj=.5
.model D_1  D  IS=1e-14 BV=40
.model D_2  D  IS=1e-14 BV=6.5

.ends AL8807A
*  =====================================================================
*
*                (c)  2013 Diodes Incorporated
*
*   The copyright in these models  and  the designs embodied belong
*   to Diodes Incorporated (" Diodes ").  They  are  supplied
*   free of charge by Diodes for the purpose of research and design
*   and may be used or copied intact  (including this notice)  for
*   that purpose only.  All other rights are reserved.  The models
*   are believed accurate but no condition or warranty as to their
*   merchantability or fitness for purpose is given and no liability
*   in respect of any use is accepted by Diodes Incorporated, its distributors
*   or agents.
*
*   Diodes Incorporated, 4949 Hedgcoxe Road, Suite 200, Plano, TX 75024, USA


**$ENCRYPTED_LIB
**$INTERFACE
*$
.SUBCKT ZXLD1371_PSPICE GATE ADJ REF GI ISIM VIN PWM SGND STATUS
+ VAUX SHP PGND FLAG TADJ NC1 NC2
$CDNENCSTART
eee8c5c7a2bc4b01f045f303678664e7916da0bae22e8cb0bba041dd67c69ce448ea70148a9ac1670c8926c1ac5057c8ccfcd77bf87ca9dc6004e157994bc9bf
394197bedeb77a716f52d5ca6e23dacf5f77689faa8a663fbc39eed45909606b00d3e0b087c73744c9f6c53b093b66727f70dd368fa5728963912ffecb55b6d8
04f5acd939422ec02fbfcc2b872ff9461d45c8eb53f8a29c749d13634498f34bc9322890ded6647b56be7388bb4ba8853543ca07c959008c54d5980f69aa986e
5316fc9fe4e05facf588045849eceb90e6626fc5bfd508b16334dff5a8e8736c568101f0eaa845cf3900116365b28771ef6559fc277d4b8d420df9a063adc751
ddf70eae3b592905ac73e51ea6171029b9eabc28f38b49586ae3f463f161071fbfd58a4b12fceb5d00d3e0b087c73744c9f6c53b093b6672f1b3224347ba154c
e0bee0f3fadd67246f52d5ca6e23dacf6ae3f463f161071f2da085ac1302fd51478a87bc5b8e6cf9691018eed3b49c363b7ed36af94fd8d0e1734198eb2d5d30
b0eb42ca922cce592fbfcc2b872ff94683aceacad20792c7749d13634498f34bc9322890ded6647b05ed049cabd059d7af34d43db6b6477cbc2933d56eb6c3c7
af399d32d282acb6184dc1300cea2a1333803012812e35a27bbf3a0197757d1a6ff4dc351624cea4964c77ba3214ca8ca8e32446a12da7d50bd780059ff414f8
8f10d309634521e5107192c97b3918a9c76dbc50c48fbbe7d0fb8f8ac09713ec478a87bc5b8e6cf9691018eed3b49c363b7ed36af94fd8d0e1734198eb2d5d30
717cdf892ff6b6ff26c880f485e2ca3492ebc16da04e46be7de72266a8957c9762d766f77596a54bf588045849eceb90e6626fc5bfd508b1d776614f460f1ceb
c6ada2f6665016dfac73e51ea6171029df13108db75bcac0ec8e4432708a2f10184dc1300cea2a1333803012812e35a27bbf3a0197757d1a10e6517c4d5c1c74
605b35877b85eee721377c54379bab5d239bdbe658d21d00044c5edbf77fecb6b03db27a4b23eea8387ddbd4b3ec85993c3ebf3aa31b5c39eb81723a9021625e
2ca24c18cb27721d153e73797dd8d866a0c7a89b875d76a7b0718e2bf61f10a7ff08e5ba163dd43c18663872d39f019dc350cbfaf73a0398017aa9b2faa6789e
dff667fce1627b8f36b24b5db985d2d3ce28bcb138548355116fb2ef8f954fae37533a275f2c6d0eb5f1c17ee7956303f716375b8c71d2ca2a84cfa93f6086c1
00575617ddd170c91068d23fb1a14817be00a2a37fc213af7f6778186477bbeb7826d86a24e0c932558ae2e6b93c4040672f752658a09f218d5c737683766352
a147194f3a3bf6c0710f626c2faf14a6f716375b8c71d2ca7447dc705bd2b9a632f1f96ca76f178f24a8b58514063cc5773cfc1bd26698df56a4048f1e4ff032
f29d7d98ef0d8ffac4a17b59ca91381df45310c19b6b8ee57017057a427e6410b540685422c11ef9fceb72c6584bab533cf4807158e4909c9d6bedf9d0034ac8
605b35877b85eee721377c54379bab5dcd9f9b0fe66d8ad1b5b85bc0d31aaef583bc4964f97c0bfb1e00d217525559aedad4bb70f534f24c16944157eaac9744
a2faec34d68cdd2af13ee61e90b65ef18ce113ea01486d742446811279bcfdca7e4eff80f489c700d80f09fa99fcdc9f31ff87f86ef7d8025ac6c13a39cffff7
64a2af3d08b8c3fbe71f71e187584171b74feb6ff8076c794d22c850cafe6d88de6b5e23e32a61b6bd761caf95d962dd61e0a440bad77e3138b871d3d163c946
273ef0efd9cac693c295486b1819e032f45310c19b6b8ee57017057a427e6410b540685422c11ef9f78e3835f7dcf08337b2d2e15ad7f2468671325e6f4b6b25
6422a9133f078ed399298f7cd44d061d706b807646b803717017057a427e6410b540685422c11ef93063c3bb852fe4d2fe14e8ed893f87905d43534984e52420
2579318862ec410f5268f2b9f86a0eca858728efae680901a23477990359ea58c64639ef522b82dbe7eefa795927f22cb124fbdd29716cfbacdab751cbf202c2