*
.MODEL VCS1 SW(VT=1)

.MODEL CCS1 CSW(IT=0.001)
